
     RDKit          3D

 17 17  0  0  0  0  0  0  0  0999 V2000
   15.6430   46.0340   20.8840 C   0  0  0  0  0  0  0  0  0  0  0  0
   16.7190   47.1250   20.9590 C   0  0  2  0  0  0  0  0  0  0  0  0
   17.8350   46.6760   21.9140 C   0  0  2  0  0  0  0  0  0  0  0  0
   17.2350   46.2480   23.2660 C   0  0  1  0  0  0  0  0  0  0  0  0
   16.0860   45.2240   23.0510 C   0  0  2  0  0  0  0  0  0  0  0  0
   15.1020   45.7510   22.1650 O   0  0  0  0  0  0  0  0  0  0  0  0
   15.3940   44.9160   24.3970 C   0  0  0  0  0  0  0  0  0  0  0  0
   15.6680   45.9160   25.3450 O   0  0  0  0  0  0  0  0  0  0  0  0
   16.6240   44.0210   22.5460 O   0  0  0  0  0  0  0  0  0  0  0  0
   18.2360   45.6790   24.0710 O   0  0  0  0  0  0  0  0  0  0  0  0
   18.7520   47.7210   22.1150 O   0  0  0  0  0  0  0  0  0  0  0  0
   16.1540   48.3290   21.4140 O   0  0  0  0  0  0  0  0  0  0  0  0
   15.8260   45.4600   26.2120 H   0  0  0  0  0  0  0  0  0  0  0  0
   17.3520   44.2620   21.9140 H   0  0  0  0  0  0  0  0  0  0  0  0
   17.7880   45.0350   24.6800 H   0  0  0  0  0  0  0  0  0  0  0  0
   19.0380   48.0270   21.2150 H   0  0  0  0  0  0  0  0  0  0  0  0
   15.2960   48.4440   20.9290 H   0  0  0  0  0  0  0  0  0  0  0  0
  1  2  1  0
  2  3  1  0
  3  4  1  0
  4  5  1  0
  5  6  1  0
  5  7  1  1
  7  8  1  0
  5  9  1  0
  4 10  1  1
  3 11  1  1
  2 12  1  1
  6  1  1  0
  8 13  1  0
  9 14  1  0
 10 15  1  0
 11 16  1  0
 12 17  1  0
M  END
$$$$
