
     RDKit          3D

 17 17  0  0  0  0  0  0  0  0999 V2000
   17.2640   47.2140   28.4320 C   0  0  0  0  0  0  0  0  0  0  0  0
   18.1250   45.9440   28.4120 C   0  0  2  0  0  0  0  0  0  0  0  0
   19.5770   46.2370   28.8700 C   0  0  2  0  0  0  0  0  0  0  0  0
   20.4230   44.9490   28.7760 C   0  0  1  0  0  0  0  0  0  0  0  0
   20.2630   44.3010   27.3900 C   0  0  2  0  0  0  0  0  0  0  0  0
   18.7640   44.1500   27.0610 C   0  0  1  0  0  0  0  0  0  0  0  0
   18.1210   45.4150   27.0960 O   0  0  0  0  0  0  0  0  0  0  0  0
   18.6310   43.6120   25.7750 O   0  0  0  0  0  0  0  0  0  0  0  0
   20.8860   43.0420   27.3960 O   0  0  0  0  0  0  0  0  0  0  0  0
   21.7760   45.2140   29.0560 O   0  0  0  0  0  0  0  0  0  0  0  0
   19.6100   46.7560   30.1760 O   0  0  0  0  0  0  0  0  0  0  0  0
   17.0010   47.6480   27.1250 O   0  0  0  0  0  0  0  0  0  0  0  0
   17.8090   43.0570   25.7860 H   0  0  0  0  0  0  0  0  0  0  0  0
   20.9200   42.7330   26.4520 H   0  0  0  0  0  0  0  0  0  0  0  0
   22.1280   44.4560   29.5920 H   0  0  0  0  0  0  0  0  0  0  0  0
   19.5220   45.9940   30.8070 H   0  0  0  0  0  0  0  0  0  0  0  0
   17.0490   46.8390   26.5520 H   0  0  0  0  0  0  0  0  0  0  0  0
  2  1  1  6
  2  3  1  0
  3  4  1  0
  4  5  1  0
  5  6  1  0
  6  7  1  0
  6  8  1  6
  5  9  1  1
  4 10  1  6
  3 11  1  1
  1 12  1  0
  7  2  1  0
  8 13  1  0
  9 14  1  0
 10 15  1  0
 11 16  1  0
 12 17  1  0
M  END
$$$$
